<nodes><node id="1" x="0.0" y="0.0" /><node id="2" x="1609.34" y="0.0" /></nodes>