<edges><edge id="1" from="1_1" to="1_2" sampledSecond="850" numLanes="1" speed="88.0" length="1207.0049999999999" width="3.6576000000000004" density="4.292929292929293" /><edge id="6" from="1_2" to="1_1" sampledSecond="0" numLanes="1" speed="88.0" length="1207.0049999999999" width="3.6576000000000004" density="0.0" /><edge id="2" from="1_2" to="2_1" sampledSecond="825" numLanes="2" speed="88.0" length="2414.0099999999998" width="3.6576000000000004" density="4.166666666666667" /><edge id="7" from="2_1" to="1_2" sampledSecond="0" numLanes="1" speed="88.0" length="2414.0099999999998" width="3.6576000000000004" density="0.0" /><edge id="3" from="2_1" to="3_1" sampledSecond="820" numLanes="1" speed="88.0" length="1609.34" width="3.6576000000000004" density="4.141414141414141" /><edge id="8" from="3_1" to="2_1" sampledSecond="0" numLanes="1" speed="88.0" length="1609.34" width="3.6576000000000004" density="0.0" /><edge id="4" from="3_1" to="4_1" sampledSecond="800" numLanes="1" speed="88.0" length="804.67" width="3.6576000000000004" density="4.040404040404041" /><edge id="9" from="4_1" to="3_1" sampledSecond="500" numLanes="1" speed="88.0" length="804.67" width="3.6576000000000004" density="2.525252525252525" /><edge id="5" from="4_1" to="5_1" sampledSecond="795" numLanes="1" speed="88.0" length="2816.345" width="3.6576000000000004" density="4.015151515151516" /><edge id="10" from="5_1" to="4_1" sampledSecond="0" numLanes="1" speed="88.0" length="2816.345" width="3.6576000000000004" density="0.0" /></edges>