<nodes><node id="1_1" x="0.0" y="0.0" /><node id="1_2" x="1817.8226818181818" y="0.0" z="0.0" radius="0.0" /><node id="1_3" x="3909.964681818182" y="0.0" z="2.0" radius="106.68" /><node id="2_1" x="4214.763924242424" y="0.0" z="0.0" radius="0.0" /><node id="2_2" x="9734.068606060606" y="0.0" z="2.0" radius="152.4" /><node id="3_1" x="10538.738606060606" y="0.0" z="0.0" radius="0.0" /><node id="4_1" x="11716.482878787878" y="0.0" z="0.0" radius="0.0" /><node id="4_2" x="24347.363484848483" y="0.0" z="2.0" radius="259.08000000000004" /><node id="5_1" x="25152.03348484848" y="0.0" z="0.0" radius="0.0" /><node id="6_1" x="25956.70348484848" y="0.0" z="0.0" radius="0.0" /></nodes>