<nodes><node id="1_1" x="0.0" y="0.0" /><node id="1_2" x="1207.0049999999999" y="0.0" z="0.0" radius="0.0" /></nodes>