<edges><edge id="1" from="1" to="2" sampledSecond="1000" numLanes="1" speed="48.0" length="804.67" width="3.6576000000000004" density="9.25925925925926" /><edge id="2" from="2" to="1" sampledSecond="1500" numLanes="1" speed="48.0" length="804.67" width="3.6576000000000004" density="13.88888888888889" /></edges>