<edges><edge id="1" from="1_1" to="1_2" sampledSecond="500" numLanes="1" speed="72.0" length="1609.34" width="3.6576000000000004" density="0.5" /><edge id="3" from="1_2" to="1_1" sampledSecond="0" numLanes="1" speed="72.0" length="1609.34" width="3.6576000000000004" density="0.5" /><edge id="2_1" from="1_2" to="2_1" sampledSecond="500" numLanes="1" speed="72.0" length="1609.34" width="3.6576000000000004" density="0.5" /><edge id="4_1" from="2_1" to="1_2" sampledSecond="0" numLanes="1" speed="72.0" length="1609.34" width="3.6576000000000004" density="0.5" /><edge id="2_2" from="2_1" to="2_2" sampledSecond="500" numLanes="1" speed="72.0" length="804.67" width="3.6576000000000004" density="0.5" /><edge id="4_2" from="2_2" to="2_1" sampledSecond="0" numLanes="1" speed="72.0" length="804.67" width="3.6576000000000004" density="0.5" /></edges>