<?xml version="1.0" encoding="UTF-8"?>

<!-- generated on 2024-07-01 22:29:16.657574 by randomTrip UNKNOWN
<configuration>
    <net-file value="../sim-coordination/sumo/hcm15.net.xml"/>
    <additional-files value="../sim-coordination/sumo/hcm15.add.vtype.xml"/>
    <output-trip-file value="../sim-coordination/sumo/hcm15.trips.xml"/>
    <route-file value="../sim-coordination/sumo/hcm15.rou.xml"/>
    <trip-attributes value="departSpeed=&quot;max&quot; type=&quot;typedist1&quot;"/>
    <speed-exponent value="1.0"/>
    <fringe-factor value="max"/>
    <allow-fringe value="True"/>
    <num-subsegs value="11"/>
    <period value="0.94"/>
    <flows value="752"/>
    <random-depart value="True"/>
</configuration>
-->

<routes xmlns:xsi="http://www.w3.org/2001/XMLSchema-instance" xsi:noNamespaceSchemaLocation="http://sumo.dlr.de/xsd/routes_file.xsd">
</routes>
