<nodes><node id="1_1" x="0.0" y="0.0" /><node id="1_2" x="1207.0049999999999" y="0.0" z="0.0" radius="0.0" /><node id="2_1" x="3621.0149999999994" y="0.0" z="0.0" radius="0.0" /><node id="3_1" x="5230.355" y="0.0" z="0.0" radius="0.0" /><node id="4_1" x="6035.025" y="0.0" z="0.0" radius="0.0" /><node id="5_1" x="8851.369999999999" y="0.0" z="0.0" radius="0.0" /></nodes>