<nodes><node id="1_1" x="0.0" y="0.0" /><node id="1_2" x="1609.34" y="0.0" z="0.0" radius="0.0" /><node id="2_1" x="3218.68" y="0.0" z="0.0" radius="0.0" /><node id="2_2" x="6439.302200342474" y="-87.79759393134228" z="4.0" radius="91.44" /></nodes>