<?xml version="1.0" encoding="UTF-8"?>

<!-- generated on 2024-07-02 18:57:29.255362 by randomTrip UNKNOWN
<configuration>
    <net-file value="../sim-coordination/sumo/hcm15.net.xml"/>
    <additional-files value="../sim-coordination/sumo/hcm15.add.vtype.xml"/>
    <output-trip-file value="../sim-coordination/sumo/hcm15.trips.xml"/>
    <route-file value="../sim-coordination/sumo/hcm15.rou.xml"/>
    <trip-attributes value="departSpeed=&quot;max&quot; type=&quot;typedist1&quot;"/>
    <speed-exponent value="1.0"/>
    <fringe-factor value="max"/>
    <num-segs value="6"/>
    <num-subsegs value="2 2 1 2 1 1"/>
    <period value="0.9"/>
    <flows value="1100"/>
    <random-depart value="True"/>
</configuration>
-->

<!-- generated on 2024-07-02 18:57:29 by Eclipse SUMO duarouter Version 1.12.0
<configuration xmlns:xsi="http://www.w3.org/2001/XMLSchema-instance" xsi:noNamespaceSchemaLocation="http://sumo.dlr.de/xsd/duarouterConfiguration.xsd">

    <input>
        <net-file value="../sim-coordination/sumo/hcm15.net.xml"/>
        <additional-files value="../sim-coordination/sumo/hcm15.add.vtype.xml"/>
        <route-files value="../sim-coordination/sumo/hcm15.trips.xml"/>
    </input>

    <output>
        <output-file value="../sim-coordination/sumo/hcm15.rou.xml"/>
        <alternatives-output value="NUL"/>
    </output>

    <time>
        <begin value="0"/>
        <end value="3600"/>
    </time>

    <report>
        <no-warnings value="true"/>
        <ignore-errors value="true"/>
        <no-step-log value="true"/>
    </report>

</configuration>
-->

<routes xmlns:xsi="http://www.w3.org/2001/XMLSchema-instance" xsi:noNamespaceSchemaLocation="http://sumo.dlr.de/xsd/routes_file.xsd">
    <vType id="vTypeCar" length="5.00" maxSpeed="88.00" probability="0.92" guiShape="passenger"/>
    <vehicle id="0.0" type="vTypeCar" depart="0.00" departSpeed="max">
        <route edges="1_1 1_2 2_1 2_2 3 4_1 4_2 5 6"/>
    </vehicle>
    <vehicle id="1.0" type="vTypeCar" depart="0.00" departSpeed="max">
        <route edges="1_1 1_2 2_1 2_2 3 4_1 4_2 5 6"/>
    </vehicle>
    <vehicle id="10.0" type="vTypeCar" depart="0.00" departSpeed="max">
        <route edges="1_1 1_2 2_1 2_2 3 4_1 4_2 5 6"/>
    </vehicle>
    <vehicle id="100.0" type="vTypeCar" depart="0.00" departSpeed="max">
        <route edges="1_1 1_2 2_1 2_2 3 4_1 4_2 5 6"/>
    </vehicle>
    <vehicle id="1000.0" type="vTypeCar" depart="0.00" departSpeed="max">
        <route edges="1_1 1_2 2_1 2_2 3 4_1 4_2 5 6"/>
    </vehicle>
    <vehicle id="1001.0" type="vTypeCar" depart="0.00" departSpeed="max">
        <route edges="1_1 1_2 2_1 2_2 3 4_1 4_2 5 6"/>
    </vehicle>
    <vehicle id="1002.0" type="vTypeCar" depart="0.00" departSpeed="max">
        <route edges="1_1 1_2 2_1 2_2 3 4_1 4_2 5 6"/>
    </vehicle>
    <vehicle id="1003.0" type="vTypeCar" depart="0.00" departSpeed="max">
        <route edges="1_1 1_2 2_1 2_2 3 4_1 4_2 5 6"/>
    </vehicle>
    <vehicle id="1004.0" type="vTypeCar" depart="0.00" departSpeed="max">
        <route edges="1_1 1_2 2_1 2_2 3 4_1 4_2 5 6"/>
    </vehicle>
    <vehicle id="1005.0" type="vTypeCar" depart="0.00" departSpeed="max">
        <route edges="1_1 1_2 2_1 2_2 3 4_1 4_2 5 6"/>
    </vehicle>
    <vType id="vTypeTruck" length="14.63" maxSpeed="88.00" probability="0.08" guiShape="truck/semitrailer"/>
    <vehicle id="1006.0" type="vTypeTruck" depart="0.00" departSpeed="max">
        <route edges="1_1 1_2 2_1 2_2 3 4_1 4_2 5 6"/>
    </vehicle>
    <vehicle id="1007.0" type="vTypeTruck" depart="0.00" departSpeed="max">
        <route edges="1_1 1_2 2_1 2_2 3 4_1 4_2 5 6"/>
    </vehicle>
    <vehicle id="1008.0" type="vTypeCar" depart="0.00" departSpeed="max">
        <route edges="1_1 1_2 2_1 2_2 3 4_1 4_2 5 6"/>
    </vehicle>
    <vehicle id="1009.0" type="vTypeCar" depart="0.00" departSpeed="max">
        <route edges="1_1 1_2 2_1 2_2 3 4_1 4_2 5 6"/>
    </vehicle>
    <vehicle id="101.0" type="vTypeCar" depart="0.00" departSpeed="max">
        <route edges="1_1 1_2 2_1 2_2 3 4_1 4_2 5 6"/>
    </vehicle>
    <vehicle id="1010.0" type="vTypeCar" depart="0.00" departSpeed="max">
        <route edges="1_1 1_2 2_1 2_2 3 4_1 4_2 5 6"/>
    </vehicle>
    <vehicle id="1011.0" type="vTypeCar" depart="0.00" departSpeed="max">
        <route edges="1_1 1_2 2_1 2_2 3 4_1 4_2 5 6"/>
    </vehicle>
    <vehicle id="1012.0" type="vTypeCar" depart="0.00" departSpeed="max">
        <route edges="1_1 1_2 2_1 2_2 3 4_1 4_2 5 6"/>
    </vehicle>
    <vehicle id="1013.0" type="vTypeCar" depart="0.00" departSpeed="max">
        <route edges="1_1 1_2 2_1 2_2 3 4_1 4_2 5 6"/>
    </vehicle>
    <vehicle id="1014.0" type="vTypeCar" depart="0.00" departSpeed="max">
        <route edges="1_1 1_2 2_1 2_2 3 4_1 4_2 5 6"/>
    </vehicle>
    <vehicle id="1015.0" type="vTypeCar" depart="0.00" departSpeed="max">
        <route edges="1_1 1_2 2_1 2_2 3 4_1 4_2 5 6"/>
    </vehicle>
    <vehicle id="1016.0" type="vTypeCar" depart="0.00" departSpeed="max">
        <route edges="1_1 1_2 2_1 2_2 3 4_1 4_2 5 6"/>
    </vehicle>
    <vehicle id="1017.0" type="vTypeCar" depart="0.00" departSpeed="max">
        <route edges="1_1 1_2 2_1 2_2 3 4_1 4_2 5 6"/>
    </vehicle>
    <vehicle id="1018.0" type="vTypeCar" depart="0.00" departSpeed="max">
        <route edges="1_1 1_2 2_1 2_2 3 4_1 4_2 5 6"/>
    </vehicle>
    <vehicle id="1019.0" type="vTypeTruck" depart="0.00" departSpeed="max">
        <route edges="1_1 1_2 2_1 2_2 3 4_1 4_2 5 6"/>
    </vehicle>
    <vehicle id="102.0" type="vTypeCar" depart="0.00" departSpeed="max">
        <route edges="1_1 1_2 2_1 2_2 3 4_1 4_2 5 6"/>
    </vehicle>
    <vehicle id="1020.0" type="vTypeTruck" depart="0.00" departSpeed="max">
        <route edges="1_1 1_2 2_1 2_2 3 4_1 4_2 5 6"/>
    </vehicle>
    <vehicle id="1021.0" type="vTypeCar" depart="0.00" departSpeed="max">
        <route edges="1_1 1_2 2_1 2_2 3 4_1 4_2 5 6"/>
    </vehicle>
    <vehicle id="1022.0" type="vTypeCar" depart="0.00" departSpeed="max">
        <route edges="1_1 1_2 2_1 2_2 3 4_1 4_2 5 6"/>
    </vehicle>
    <vehicle id="1023.0" type="vTypeCar" depart="0.00" departSpeed="max">
        <route edges="1_1 1_2 2_1 2_2 3 4_1 4_2 5 6"/>
    </vehicle>
    <vehicle id="1024.0" type="vTypeCar" depart="0.00" departSpeed="max">
        <route edges="1_1 1_2 2_1 2_2 3 4_1 4_2 5 6"/>
    </vehicle>
    <vehicle id="1025.0" type="vTypeCar" depart="0.00" departSpeed="max">
        <route edges="1_1 1_2 2_1 2_2 3 4_1 4_2 5 6"/>
    </vehicle>
    <vehicle id="1026.0" type="vTypeCar" depart="0.00" departSpeed="max">
        <route edges="1_1 1_2 2_1 2_2 3 4_1 4_2 5 6"/>
    </vehicle>
    <vehicle id="1027.0" type="vTypeCar" depart="0.00" departSpeed="max">
        <route edges="1_1 1_2 2_1 2_2 3 4_1 4_2 5 6"/>
    </vehicle>
    <vehicle id="1028.0" type="vTypeCar" depart="0.00" departSpeed="max">
        <route edges="1_1 1_2 2_1 2_2 3 4_1 4_2 5 6"/>
    </vehicle>
    <vehicle id="1029.0" type="vTypeCar" depart="0.00" departSpeed="max">
        <route edges="1_1 1_2 2_1 2_2 3 4_1 4_2 5 6"/>
    </vehicle>
    <vehicle id="103.0" type="vTypeCar" depart="0.00" departSpeed="max">
        <route edges="1_1 1_2 2_1 2_2 3 4_1 4_2 5 6"/>
    </vehicle>
    <vehicle id="1030.0" type="vTypeCar" depart="0.00" departSpeed="max">
        <route edges="1_1 1_2 2_1 2_2 3 4_1 4_2 5 6"/>
    </vehicle>
    <vehicle id="1031.0" type="vTypeCar" depart="0.00" departSpeed="max">
        <route edges="1_1 1_2 2_1 2_2 3 4_1 4_2 5 6"/>
    </vehicle>
    <vehicle id="1032.0" type="vTypeCar" depart="0.00" departSpeed="max">
        <route edges="1_1 1_2 2_1 2_2 3 4_1 4_2 5 6"/>
    </vehicle>
    <vehicle id="1033.0" type="vTypeCar" depart="0.00" departSpeed="max">
        <route edges="1_1 1_2 2_1 2_2 3 4_1 4_2 5 6"/>
    </vehicle>
    <vehicle id="1034.0" type="vTypeCar" depart="0.00" departSpeed="max">
        <route edges="1_1 1_2 2_1 2_2 3 4_1 4_2 5 6"/>
    </vehicle>
    <vehicle id="1035.0" type="vTypeCar" depart="0.00" departSpeed="max">
        <route edges="1_1 1_2 2_1 2_2 3 4_1 4_2 5 6"/>
    </vehicle>
    <vehicle id="1036.0" type="vTypeCar" depart="0.00" departSpeed="max">
        <route edges="1_1 1_2 2_1 2_2 3 4_1 4_2 5 6"/>
    </vehicle>
    <vehicle id="1037.0" type="vTypeCar" depart="0.00" departSpeed="max">
        <route edges="1_1 1_2 2_1 2_2 3 4_1 4_2 5 6"/>
    </vehicle>
    <vehicle id="1038.0" type="vTypeTruck" depart="0.00" departSpeed="max">
        <route edges="1_1 1_2 2_1 2_2 3 4_1 4_2 5 6"/>
    </vehicle>
    <vehicle id="1039.0" type="vTypeTruck" depart="0.00" departSpeed="max">
        <route edges="1_1 1_2 2_1 2_2 3 4_1 4_2 5 6"/>
    </vehicle>
    <vehicle id="104.0" type="vTypeCar" depart="0.00" departSpeed="max">
        <route edges="1_1 1_2 2_1 2_2 3 4_1 4_2 5 6"/>
    </vehicle>
    <vehicle id="1040.0" type="vTypeCar" depart="0.00" departSpeed="max">
        <route edges="1_1 1_2 2_1 2_2 3 4_1 4_2 5 6"/>
    </vehicle>
    <vehicle id="1041.0" type="vTypeCar" depart="0.00" departSpeed="max">
        <route edges="1_1 1_2 2_1 2_2 3 4_1 4_2 5 6"/>
    </vehicle>
    <vehicle id="1042.0" type="vTypeCar" depart="0.00" departSpeed="max">
        <route edges="1_1 1_2 2_1 2_2 3 4_1 4_2 5 6"/>
    </vehicle>
    <vehicle id="1043.0" type="vTypeCar" depart="0.00" departSpeed="max">
        <route edges="1_1 1_2 2_1 2_2 3 4_1 4_2 5 6"/>
    </vehicle>
    <vehicle id="1044.0" type="vTypeCar" depart="0.00" departSpeed="max">
        <route edges="1_1 1_2 2_1 2_2 3 4_1 4_2 5 6"/>
    </vehicle>
    <vehicle id="1045.0" type="vTypeCar" depart="0.00" departSpeed="max">
        <route edges="1_1 1_2 2_1 2_2 3 4_1 4_2 5 6"/>
    </vehicle>
    <vehicle id="1046.0" type="vTypeTruck" depart="0.00" departSpeed="max">
        <route edges="1_1 1_2 2_1 2_2 3 4_1 4_2 5 6"/>
    </vehicle>
    <vehicle id="1047.0" type="vTypeCar" depart="0.00" departSpeed="max">
        <route edges="1_1 1_2 2_1 2_2 3 4_1 4_2 5 6"/>
    </vehicle>
    <vehicle id="1048.0" type="vTypeCar" depart="0.00" departSpeed="max">
        <route edges="1_1 1_2 2_1 2_2 3 4_1 4_2 5 6"/>
    </vehicle>
    <vehicle id="1049.0" type="vTypeCar" depart="0.00" departSpeed="max">
        <route edges="1_1 1_2 2_1 2_2 3 4_1 4_2 5 6"/>
    </vehicle>
    <vehicle id="105.0" type="vTypeCar" depart="0.00" departSpeed="max">
        <route edges="1_1 1_2 2_1 2_2 3 4_1 4_2 5 6"/>
    </vehicle>
    <vehicle id="1050.0" type="vTypeCar" depart="0.00" departSpeed="max">
        <route edges="1_1 1_2 2_1 2_2 3 4_1 4_2 5 6"/>
    </vehicle>
    <vehicle id="1051.0" type="vTypeCar" depart="0.00" departSpeed="max">
        <route edges="1_1 1_2 2_1 2_2 3 4_1 4_2 5 6"/>
    </vehicle>
    <vehicle id="1052.0" type="vTypeCar" depart="0.00" departSpeed="max">
        <route edges="1_1 1_2 2_1 2_2 3 4_1 4_2 5 6"/>
    </vehicle>
    <vehicle id="1053.0" type="vTypeCar" depart="0.00" departSpeed="max">
        <route edges="1_1 1_2 2_1 2_2 3 4_1 4_2 5 6"/>
    </vehicle>
    <vehicle id="1054.0" type="vTypeCar" depart="0.00" departSpeed="max">
        <route edges="1_1 1_2 2_1 2_2 3 4_1 4_2 5 6"/>
    </vehicle>
    <vehicle id="1055.0" type="vTypeCar" depart="0.00" departSpeed="max">
        <route edges="1_1 1_2 2_1 2_2 3 4_1 4_2 5 6"/>
    </vehicle>
    <vehicle id="1056.0" type="vTypeCar" depart="0.00" departSpeed="max">
        <route edges="1_1 1_2 2_1 2_2 3 4_1 4_2 5 6"/>
    </vehicle>
    <vehicle id="1057.0" type="vTypeCar" depart="0.00" departSpeed="max">
        <route edges="1_1 1_2 2_1 2_2 3 4_1 4_2 5 6"/>
    </vehicle>
    <vehicle id="1058.0" type="vTypeCar" depart="0.00" departSpeed="max">
        <route edges="1_1 1_2 2_1 2_2 3 4_1 4_2 5 6"/>
    </vehicle>
    <vehicle id="1059.0" type="vTypeCar" depart="0.00" departSpeed="max">
        <route edges="1_1 1_2 2_1 2_2 3 4_1 4_2 5 6"/>
    </vehicle>
    <vehicle id="106.0" type="vTypeCar" depart="0.00" departSpeed="max">
        <route edges="1_1 1_2 2_1 2_2 3 4_1 4_2 5 6"/>
    </vehicle>
    <vehicle id="1060.0" type="vTypeCar" depart="0.00" departSpeed="max">
        <route edges="1_1 1_2 2_1 2_2 3 4_1 4_2 5 6"/>
    </vehicle>
    <vehicle id="1061.0" type="vTypeCar" depart="0.00" departSpeed="max">
        <route edges="1_1 1_2 2_1 2_2 3 4_1 4_2 5 6"/>
    </vehicle>
    <vehicle id="1062.0" type="vTypeCar" depart="0.00" departSpeed="max">
        <route edges="1_1 1_2 2_1 2_2 3 4_1 4_2 5 6"/>
    </vehicle>
    <vehicle id="1063.0" type="vTypeCar" depart="0.00" departSpeed="max">
        <route edges="1_1 1_2 2_1 2_2 3 4_1 4_2 5 6"/>
    </vehicle>
    <vehicle id="1064.0" type="vTypeCar" depart="0.00" departSpeed="max">
        <route edges="1_1 1_2 2_1 2_2 3 4_1 4_2 5 6"/>
    </vehicle>
    <vehicle id="1065.0" type="vTypeCar" depart="0.00" departSpeed="max">
        <route edges="1_1 1_2 2_1 2_2 3 4_1 4_2 5 6"/>
    </vehicle>
    <vehicle id="1066.0" type="vTypeCar" depart="0.00" departSpeed="max">
        <route edges="1_1 1_2 2_1 2_2 3 4_1 4_2 5 6"/>
    </vehicle>
    <vehicle id="1067.0" type="vTypeCar" depart="0.00" departSpeed="max">
        <route edges="1_1 1_2 2_1 2_2 3 4_1 4_2 5 6"/>
    </vehicle>
    <vehicle id="1068.0" type="vTypeCar" depart="0.00" departSpeed="max">
        <route edges="1_1 1_2 2_1 2_2 3 4_1 4_2 5 6"/>
    </vehicle>
    <vehicle id="1069.0" type="vTypeCar" depart="0.00" departSpeed="max">
        <route edges="1_1 1_2 2_1 2_2 3 4_1 4_2 5 6"/>
    </vehicle>
    <vehicle id="107.0" type="vTypeCar" depart="0.00" departSpeed="max">
        <route edges="1_1 1_2 2_1 2_2 3 4_1 4_2 5 6"/>
    </vehicle>
    <vehicle id="1070.0" type="vTypeCar" depart="0.00" departSpeed="max">
        <route edges="1_1 1_2 2_1 2_2 3 4_1 4_2 5 6"/>
    </vehicle>
    <vehicle id="1071.0" type="vTypeCar" depart="0.00" departSpeed="max">
        <route edges="1_1 1_2 2_1 2_2 3 4_1 4_2 5 6"/>
    </vehicle>
    <vehicle id="1072.0" type="vTypeCar" depart="0.00" departSpeed="max">
        <route edges="1_1 1_2 2_1 2_2 3 4_1 4_2 5 6"/>
    </vehicle>
    <vehicle id="1073.0" type="vTypeCar" depart="0.00" departSpeed="max">
        <route edges="1_1 1_2 2_1 2_2 3 4_1 4_2 5 6"/>
    </vehicle>
    <vehicle id="1074.0" type="vTypeCar" depart="0.00" departSpeed="max">
        <route edges="1_1 1_2 2_1 2_2 3 4_1 4_2 5 6"/>
    </vehicle>
    <vehicle id="1075.0" type="vTypeCar" depart="0.00" departSpeed="max">
        <route edges="1_1 1_2 2_1 2_2 3 4_1 4_2 5 6"/>
    </vehicle>
    <vehicle id="1076.0" type="vTypeCar" depart="0.00" departSpeed="max">
        <route edges="1_1 1_2 2_1 2_2 3 4_1 4_2 5 6"/>
    </vehicle>
    <vehicle id="1077.0" type="vTypeCar" depart="0.00" departSpeed="max">
        <route edges="1_1 1_2 2_1 2_2 3 4_1 4_2 5 6"/>
    </vehicle>
    <vehicle id="1078.0" type="vTypeCar" depart="0.00" departSpeed="max">
        <route edges="1_1 1_2 2_1 2_2 3 4_1 4_2 5 6"/>
    </vehicle>
    <vehicle id="1079.0" type="vTypeCar" depart="0.00" departSpeed="max">
        <route edges="1_1 1_2 2_1 2_2 3 4_1 4_2 5 6"/>
    </vehicle>
    <vehicle id="108.0" type="vTypeCar" depart="0.00" departSpeed="max">
        <route edges="1_1 1_2 2_1 2_2 3 4_1 4_2 5 6"/>
    </vehicle>
    <vehicle id="1080.0" type="vTypeTruck" depart="0.00" departSpeed="max">
        <route edges="1_1 1_2 2_1 2_2 3 4_1 4_2 5 6"/>
    </vehicle>
    <vehicle id="1081.0" type="vTypeCar" depart="0.00" departSpeed="max">
        <route edges="1_1 1_2 2_1 2_2 3 4_1 4_2 5 6"/>
    </vehicle>
    <vehicle id="1082.0" type="vTypeCar" depart="0.00" departSpeed="max">
        <route edges="1_1 1_2 2_1 2_2 3 4_1 4_2 5 6"/>
    </vehicle>
    <vehicle id="1083.0" type="vTypeCar" depart="0.00" departSpeed="max">
        <route edges="1_1 1_2 2_1 2_2 3 4_1 4_2 5 6"/>
    </vehicle>
    <vehicle id="1084.0" type="vTypeCar" depart="0.00" departSpeed="max">
        <route edges="1_1 1_2 2_1 2_2 3 4_1 4_2 5 6"/>
    </vehicle>
    <vehicle id="1085.0" type="vTypeCar" depart="0.00" departSpeed="max">
        <route edges="1_1 1_2 2_1 2_2 3 4_1 4_2 5 6"/>
    </vehicle>
    <vehicle id="1086.0" type="vTypeCar" depart="0.00" departSpeed="max">
        <route edges="1_1 1_2 2_1 2_2 3 4_1 4_2 5 6"/>
    </vehicle>
    <vehicle id="1087.0" type="vTypeCar" depart="0.00" departSpeed="max">
        <route edges="1_1 1_2 2_1 2_2 3 4_1 4_2 5 6"/>
    </vehicle>
    <vehicle id="1088.0" type="vTypeCar" depart="0.00" departSpeed="max">
        <route edges="1_1 1_2 2_1 2_2 3 4_1 4_2 5 6"/>
    </vehicle>
    <vehicle id="1089.0" type="vTypeCar" depart="0.00" departSpeed="max">
        <route edges="1_1 1_2 2_1 2_2 3 4_1 4_2 5 6"/>
    </vehicle>
    <vehicle id="109.0" type="vTypeCar" depart="0.00" departSpeed="max">
        <route edges="1_1 1_2 2_1 2_2 3 4_1 4_2 5 6"/>
    </vehicle>
    <vehicle id="1090.0" type="vTypeCar" depart="0.00" departSpeed="max">
        <route edges="1_1 1_2 2_1 2_2 3 4_1 4_2 5 6"/>
    </vehicle>
    <vehicle id="1091.0" type="vTypeCar" depart="0.00" departSpeed="max">
        <route edges="1_1 1_2 2_1 2_2 3 4_1 4_2 5 6"/>
    </vehicle>
    <vehicle id="1092.0" type="vTypeCar" depart="0.00" departSpeed="max">
        <route edges="1_1 1_2 2_1 2_2 3 4_1 4_2 5 6"/>
    </vehicle>
    <vehicle id="1093.0" type="vTypeCar" depart="0.00" departSpeed="max">
        <route edges="1_1 1_2 2_1 2_2 3 4_1 4_2 5 6"/>
    </vehicle>
    <vehicle id="1094.0" type="vTypeCar" depart="0.00" departSpeed="max">
        <route edges="1_1 1_2 2_1 2_2 3 4_1 4_2 5 6"/>
    </vehicle>
    <vehicle id="1095.0" type="vTypeCar" depart="0.00" departSpeed="max">
        <route edges="1_1 1_2 2_1 2_2 3 4_1 4_2 5 6"/>
    </vehicle>
    <vehicle id="1096.0" type="vTypeCar" depart="0.00" departSpeed="max">
        <route edges="1_1 1_2 2_1 2_2 3 4_1 4_2 5 6"/>
    </vehicle>
    <vehicle id="1097.0" type="vTypeCar" depart="0.00" departSpeed="max">
        <route edges="1_1 1_2 2_1 2_2 3 4_1 4_2 5 6"/>
    </vehicle>
    <vehicle id="1098.0" type="vTypeCar" depart="0.00" departSpeed="max">
        <route edges="1_1 1_2 2_1 2_2 3 4_1 4_2 5 6"/>
    </vehicle>
    <vehicle id="1099.0" type="vTypeCar" depart="0.00" departSpeed="max">
        <route edges="1_1 1_2 2_1 2_2 3 4_1 4_2 5 6"/>
    </vehicle>
    <vehicle id="11.0" type="vTypeCar" depart="0.00" departSpeed="max">
        <route edges="1_1 1_2 2_1 2_2 3 4_1 4_2 5 6"/>
    </vehicle>
    <vehicle id="110.0" type="vTypeCar" depart="0.00" departSpeed="max">
        <route edges="1_1 1_2 2_1 2_2 3 4_1 4_2 5 6"/>
    </vehicle>
    <vehicle id="111.0" type="vTypeCar" depart="0.00" departSpeed="max">
        <route edges="1_1 1_2 2_1 2_2 3 4_1 4_2 5 6"/>
    </vehicle>
    <vehicle id="112.0" type="vTypeCar" depart="0.00" departSpeed="max">
        <route edges="1_1 1_2 2_1 2_2 3 4_1 4_2 5 6"/>
    </vehicle>
    <vehicle id="113.0" type="vTypeCar" depart="0.00" departSpeed="max">
        <route edges="1_1 1_2 2_1 2_2 3 4_1 4_2 5 6"/>
    </vehicle>
    <vehicle id="114.0" type="vTypeCar" depart="0.00" departSpeed="max">
        <route edges="1_1 1_2 2_1 2_2 3 4_1 4_2 5 6"/>
    </vehicle>
    <vehicle id="115.0" type="vTypeCar" depart="0.00" departSpeed="max">
        <route edges="1_1 1_2 2_1 2_2 3 4_1 4_2 5 6"/>
    </vehicle>
    <vehicle id="116.0" type="vTypeCar" depart="0.00" departSpeed="max">
        <route edges="1_1 1_2 2_1 2_2 3 4_1 4_2 5 6"/>
    </vehicle>
    <vehicle id="117.0" type="vTypeCar" depart="0.00" departSpeed="max">
        <route edges="1_1 1_2 2_1 2_2 3 4_1 4_2 5 6"/>
    </vehicle>
    <vehicle id="118.0" type="vTypeCar" depart="0.00" departSpeed="max">
        <route edges="1_1 1_2 2_1 2_2 3 4_1 4_2 5 6"/>
    </vehicle>
    <vehicle id="119.0" type="vTypeCar" depart="0.00" departSpeed="max">
        <route edges="1_1 1_2 2_1 2_2 3 4_1 4_2 5 6"/>
    </vehicle>
    <vehicle id="12.0" type="vTypeTruck" depart="0.00" departSpeed="max">
        <route edges="1_1 1_2 2_1 2_2 3 4_1 4_2 5 6"/>
    </vehicle>
    <vehicle id="120.0" type="vTypeCar" depart="0.00" departSpeed="max">
        <route edges="1_1 1_2 2_1 2_2 3 4_1 4_2 5 6"/>
    </vehicle>
    <vehicle id="121.0" type="vTypeCar" depart="0.00" departSpeed="max">
        <route edges="1_1 1_2 2_1 2_2 3 4_1 4_2 5 6"/>
    </vehicle>
    <vehicle id="122.0" type="vTypeCar" depart="0.00" departSpeed="max">
        <route edges="1_1 1_2 2_1 2_2 3 4_1 4_2 5 6"/>
    </vehicle>
    <vehicle id="123.0" type="vTypeCar" depart="0.00" departSpeed="max">
        <route edges="1_1 1_2 2_1 2_2 3 4_1 4_2 5 6"/>
    </vehicle>
    <vehicle id="124.0" type="vTypeCar" depart="0.00" departSpeed="max">
        <route edges="1_1 1_2 2_1 2_2 3 4_1 4_2 5 6"/>
    </vehicle>
    <vehicle id="125.0" type="vTypeCar" depart="0.00" departSpeed="max">
        <route edges="1_1 1_2 2_1 2_2 3 4_1 4_2 5 6"/>
    </vehicle>
    <vehicle id="126.0" type="vTypeCar" depart="0.00" departSpeed="max">
        <route edges="1_1 1_2 2_1 2_2 3 4_1 4_2 5 6"/>
    </vehicle>
    <vehicle id="127.0" type="vTypeCar" depart="0.00" departSpeed="max">
        <route edges="1_1 1_2 2_1 2_2 3 4_1 4_2 5 6"/>
    </vehicle>
    <vehicle id="128.0" type="vTypeCar" depart="0.00" departSpeed="max">
        <route edges="1_1 1_2 2_1 2_2 3 4_1 4_2 5 6"/>
    </vehicle>
    <vehicle id="129.0" type="vTypeCar" depart="0.00" departSpeed="max">
        <route edges="1_1 1_2 2_1 2_2 3 4_1 4_2 5 6"/>
    </vehicle>
    <vehicle id="13.0" type="vTypeCar" depart="0.00" departSpeed="max">
        <route edges="1_1 1_2 2_1 2_2 3 4_1 4_2 5 6"/>
    </vehicle>
    <vehicle id="130.0" type="vTypeTruck" depart="0.00" departSpeed="max">
        <route edges="1_1 1_2 2_1 2_2 3 4_1 4_2 5 6"/>
    </vehicle>
    <vehicle id="131.0" type="vTypeCar" depart="0.00" departSpeed="max">
        <route edges="1_1 1_2 2_1 2_2 3 4_1 4_2 5 6"/>
    </vehicle>
    <vehicle id="132.0" type="vTypeCar" depart="0.00" departSpeed="max">
        <route edges="1_1 1_2 2_1 2_2 3 4_1 4_2 5 6"/>
    </vehicle>
    <vehicle id="133.0" type="vTypeTruck" depart="0.00" departSpeed="max">
        <route edges="1_1 1_2 2_1 2_2 3 4_1 4_2 5 6"/>
    </vehicle>
    <vehicle id="134.0" type="vTypeCar" depart="0.00" departSpeed="max">
        <route edges="1_1 1_2 2_1 2_2 3 4_1 4_2 5 6"/>
    </vehicle>
    <vehicle id="135.0" type="vTypeCar" depart="0.00" departSpeed="max">
        <route edges="1_1 1_2 2_1 2_2 3 4_1 4_2 5 6"/>
    </vehicle>
    <vehicle id="136.0" type="vTypeCar" depart="0.00" departSpeed="max">
        <route edges="1_1 1_2 2_1 2_2 3 4_1 4_2 5 6"/>
    </vehicle>
    <vehicle id="137.0" type="vTypeCar" depart="0.00" departSpeed="max">
        <route edges="1_1 1_2 2_1 2_2 3 4_1 4_2 5 6"/>
    </vehicle>
    <vehicle id="138.0" type="vTypeCar" depart="0.00" departSpeed="max">
        <route edges="1_1 1_2 2_1 2_2 3 4_1 4_2 5 6"/>
    </vehicle>
    <vehicle id="139.0" type="vTypeCar" depart="0.00" departSpeed="max">
        <route edges="1_1 1_2 2_1 2_2 3 4_1 4_2 5 6"/>
    </vehicle>
    <vehicle id="14.0" type="vTypeCar" depart="0.00" departSpeed="max">
        <route edges="1_1 1_2 2_1 2_2 3 4_1 4_2 5 6"/>
    </vehicle>
    <vehicle id="140.0" type="vTypeCar" depart="0.00" departSpeed="max">
        <route edges="1_1 1_2 2_1 2_2 3 4_1 4_2 5 6"/>
    </vehicle>
    <vehicle id="141.0" type="vTypeCar" depart="0.00" departSpeed="max">
        <route edges="1_1 1_2 2_1 2_2 3 4_1 4_2 5 6"/>
    </vehicle>
    <vehicle id="142.0" type="vTypeCar" depart="0.00" departSpeed="max">
        <route edges="1_1 1_2 2_1 2_2 3 4_1 4_2 5 6"/>
    </vehicle>
    <vehicle id="143.0" type="vTypeCar" depart="0.00" departSpeed="max">
        <route edges="1_1 1_2 2_1 2_2 3 4_1 4_2 5 6"/>
    </vehicle>
    <vehicle id="144.0" type="vTypeCar" depart="0.00" departSpeed="max">
        <route edges="1_1 1_2 2_1 2_2 3 4_1 4_2 5 6"/>
    </vehicle>
    <vehicle id="145.0" type="vTypeCar" depart="0.00" departSpeed="max">
        <route edges="1_1 1_2 2_1 2_2 3 4_1 4_2 5 6"/>
    </vehicle>
    <vehicle id="146.0" type="vTypeCar" depart="0.00" departSpeed="max">
        <route edges="1_1 1_2 2_1 2_2 3 4_1 4_2 5 6"/>
    </vehicle>
    <vehicle id="147.0" type="vTypeTruck" depart="0.00" departSpeed="max">
        <route edges="1_1 1_2 2_1 2_2 3 4_1 4_2 5 6"/>
    </vehicle>
    <vehicle id="148.0" type="vTypeTruck" depart="0.00" departSpeed="max">
        <route edges="1_1 1_2 2_1 2_2 3 4_1 4_2 5 6"/>
    </vehicle>
    <vehicle id="149.0" type="vTypeCar" depart="0.00" departSpeed="max">
        <route edges="1_1 1_2 2_1 2_2 3 4_1 4_2 5 6"/>
    </vehicle>
    <vehicle id="15.0" type="vTypeCar" depart="0.00" departSpeed="max">
        <route edges="1_1 1_2 2_1 2_2 3 4_1 4_2 5 6"/>
    </vehicle>
    <vehicle id="150.0" type="vTypeCar" depart="0.00" departSpeed="max">
        <route edges="1_1 1_2 2_1 2_2 3 4_1 4_2 5 6"/>
    </vehicle>
    <vehicle id="151.0" type="vTypeCar" depart="0.00" departSpeed="max">
        <route edges="1_1 1_2 2_1 2_2 3 4_1 4_2 5 6"/>
    </vehicle>
    <vehicle id="152.0" type="vTypeCar" depart="0.00" departSpeed="max">
        <route edges="1_1 1_2 2_1 2_2 3 4_1 4_2 5 6"/>
    </vehicle>
    <vehicle id="153.0" type="vTypeCar" depart="0.00" departSpeed="max">
        <route edges="1_1 1_2 2_1 2_2 3 4_1 4_2 5 6"/>
    </vehicle>
    <vehicle id="154.0" type="vTypeCar" depart="0.00" departSpeed="max">
        <route edges="1_1 1_2 2_1 2_2 3 4_1 4_2 5 6"/>
    </vehicle>
    <vehicle id="155.0" type="vTypeCar" depart="0.00" departSpeed="max">
        <route edges="1_1 1_2 2_1 2_2 3 4_1 4_2 5 6"/>
    </vehicle>
    <vehicle id="156.0" type="vTypeCar" depart="0.00" departSpeed="max">
        <route edges="1_1 1_2 2_1 2_2 3 4_1 4_2 5 6"/>
    </vehicle>
    <vehicle id="157.0" type="vTypeCar" depart="0.00" departSpeed="max">
        <route edges="1_1 1_2 2_1 2_2 3 4_1 4_2 5 6"/>
    </vehicle>
    <vehicle id="158.0" type="vTypeCar" depart="0.00" departSpeed="max">
        <route edges="1_1 1_2 2_1 2_2 3 4_1 4_2 5 6"/>
    </vehicle>
    <vehicle id="159.0" type="vTypeCar" depart="0.00" departSpeed="max">
        <route edges="1_1 1_2 2_1 2_2 3 4_1 4_2 5 6"/>
    </vehicle>
    <vehicle id="16.0" type="vTypeCar" depart="0.00" departSpeed="max">
        <route edges="1_1 1_2 2_1 2_2 3 4_1 4_2 5 6"/>
    </vehicle>
    <vehicle id="160.0" type="vTypeCar" depart="0.00" departSpeed="max">
        <route edges="1_1 1_2 2_1 2_2 3 4_1 4_2 5 6"/>
    </vehicle>
    <vehicle id="161.0" type="vTypeCar" depart="0.00" departSpeed="max">
        <route edges="1_1 1_2 2_1 2_2 3 4_1 4_2 5 6"/>
    </vehicle>
    <vehicle id="162.0" type="vTypeCar" depart="0.00" departSpeed="max">
        <route edges="1_1 1_2 2_1 2_2 3 4_1 4_2 5 6"/>
    </vehicle>
    <vehicle id="163.0" type="vTypeCar" depart="0.00" departSpeed="max">
        <route edges="1_1 1_2 2_1 2_2 3 4_1 4_2 5 6"/>
    </vehicle>
    <vehicle id="164.0" type="vTypeCar" depart="0.00" departSpeed="max">
        <route edges="1_1 1_2 2_1 2_2 3 4_1 4_2 5 6"/>
    </vehicle>
    <vehicle id="165.0" type="vTypeCar" depart="0.00" departSpeed="max">
        <route edges="1_1 1_2 2_1 2_2 3 4_1 4_2 5 6"/>
    </vehicle>
    <vehicle id="166.0" type="vTypeCar" depart="0.00" departSpeed="max">
        <route edges="1_1 1_2 2_1 2_2 3 4_1 4_2 5 6"/>
    </vehicle>
    <vehicle id="167.0" type="vTypeCar" depart="0.00" departSpeed="max">
        <route edges="1_1 1_2 2_1 2_2 3 4_1 4_2 5 6"/>
    </vehicle>
    <vehicle id="168.0" type="vTypeCar" depart="0.00" departSpeed="max">
        <route edges="1_1 1_2 2_1 2_2 3 4_1 4_2 5 6"/>
    </vehicle>
    <vehicle id="169.0" type="vTypeCar" depart="0.00" departSpeed="max">
        <route edges="1_1 1_2 2_1 2_2 3 4_1 4_2 5 6"/>
    </vehicle>
    <vehicle id="17.0" type="vTypeCar" depart="0.00" departSpeed="max">
        <route edges="1_1 1_2 2_1 2_2 3 4_1 4_2 5 6"/>
    </vehicle>
    <vehicle id="170.0" type="vTypeTruck" depart="0.00" departSpeed="max">
        <route edges="1_1 1_2 2_1 2_2 3 4_1 4_2 5 6"/>
    </vehicle>
    <vehicle id="171.0" type="vTypeCar" depart="0.00" departSpeed="max">
        <route edges="1_1 1_2 2_1 2_2 3 4_1 4_2 5 6"/>
    </vehicle>
    <vehicle id="172.0" type="vTypeCar" depart="0.00" departSpeed="max">
        <route edges="1_1 1_2 2_1 2_2 3 4_1 4_2 5 6"/>
    </vehicle>
    <vehicle id="173.0" type="vTypeCar" depart="0.00" departSpeed="max">
        <route edges="1_1 1_2 2_1 2_2 3 4_1 4_2 5 6"/>
    </vehicle>
    <vehicle id="174.0" type="vTypeCar" depart="0.00" departSpeed="max">
        <route edges="1_1 1_2 2_1 2_2 3 4_1 4_2 5 6"/>
    </vehicle>
    <vehicle id="175.0" type="vTypeCar" depart="0.00" departSpeed="max">
        <route edges="1_1 1_2 2_1 2_2 3 4_1 4_2 5 6"/>
    </vehicle>
    <vehicle id="176.0" type="vTypeCar" depart="0.00" departSpeed="max">
        <route edges="1_1 1_2 2_1 2_2 3 4_1 4_2 5 6"/>
    </vehicle>
    <vehicle id="177.0" type="vTypeCar" depart="0.00" departSpeed="max">
        <route edges="1_1 1_2 2_1 2_2 3 4_1 4_2 5 6"/>
    </vehicle>
    <vehicle id="178.0" type="vTypeCar" depart="0.00" departSpeed="max">
        <route edges="1_1 1_2 2_1 2_2 3 4_1 4_2 5 6"/>
    </vehicle>
    <vehicle id="179.0" type="vTypeCar" depart="0.00" departSpeed="max">
        <route edges="1_1 1_2 2_1 2_2 3 4_1 4_2 5 6"/>
    </vehicle>
    <vehicle id="18.0" type="vTypeCar" depart="0.00" departSpeed="max">
        <route edges="1_1 1_2 2_1 2_2 3 4_1 4_2 5 6"/>
    </vehicle>
    <vehicle id="180.0" type="vTypeTruck" depart="0.00" departSpeed="max">
        <route edges="1_1 1_2 2_1 2_2 3 4_1 4_2 5 6"/>
    </vehicle>
    <vehicle id="181.0" type="vTypeCar" depart="0.00" departSpeed="max">
        <route edges="1_1 1_2 2_1 2_2 3 4_1 4_2 5 6"/>
    </vehicle>
    <vehicle id="182.0" type="vTypeCar" depart="0.00" departSpeed="max">
        <route edges="1_1 1_2 2_1 2_2 3 4_1 4_2 5 6"/>
    </vehicle>
    <vehicle id="183.0" type="vTypeCar" depart="0.00" departSpeed="max">
        <route edges="1_1 1_2 2_1 2_2 3 4_1 4_2 5 6"/>
    </vehicle>