<?xml version="1.0" encoding="UTF-8"?>

<!-- generated on 2024-06-26 22:01:39 by Eclipse SUMO netconvert Version 1.12.0
<configuration xmlns:xsi="http://www.w3.org/2001/XMLSchema-instance" xsi:noNamespaceSchemaLocation="http://sumo.dlr.de/xsd/netconvertConfiguration.xsd">

    <input>
        <node-files value="../sim-coordination/sumo/hcm15.nod.xml"/>
        <edge-files value="../sim-coordination/sumo/hcm15.edg.xml"/>
    </input>

    <output>
        <output-file value="../sim-coordination/sumo/hcm15.net.xml"/>
    </output>

    <junctions>
        <no-turnarounds value="true"/>
    </junctions>

    <report>
        <aggregate-warnings value="5"/>
    </report>

</configuration>
-->

<net version="1.9" junctionCornerDetail="5" limitTurnSpeed="5.50" xmlns:xsi="http://www.w3.org/2001/XMLSchema-instance" xsi:noNamespaceSchemaLocation="http://sumo.dlr.de/xsd/net_file.xsd">

    <location netOffset="0.00,0.00" convBoundary="0.00,0.00,1207.00,0.00" origBoundary="0.00,0.00,1207.00,0.00" projParameter="!"/>

    <edge id="1" from="1_1" to="1_2" priority="-1" length="1207.00">
        <lane id="1_0" index="0" speed="80.00" length="1207.00" width="3.66" shape="-0.00,-1.83 1207.00,-1.83"/>
    </edge>
    <edge id="2" from="1_2" to="1_1" priority="-1" length="1207.00">
        <lane id="2_0" index="0" speed="80.00" length="1207.00" width="3.66" shape="1207.00,1.83 -0.00,1.83"/>
    </edge>

    <junction id="1_1" type="dead_end" x="0.00" y="0.00" incLanes="2_0" intLanes="" shape="-0.00,0.00 -0.00,3.66 -0.00,0.00"/>
    <junction id="1_2" type="dead_end" x="1207.00" y="0.00" incLanes="1_0" intLanes="" shape="1207.00,0.00 1207.00,-3.66 1207.00,0.00" radius="0.00"/>

</net>
