<edges><edge id="1_1" from="1_1" to="1_2" sampledSecond="1100" numLanes="1" speed="88.0" length="1817.8226818181818" width="3.6576000000000004" density="5.555555555555555" /><edge id="7_1" from="1_2" to="1_1" sampledSecond="1100" numLanes="1" speed="88.0" length="1817.8226818181818" width="3.6576000000000004" density="5.555555555555555" /><edge id="1_2" from="1_2" to="1_3" sampledSecond="1100" numLanes="1" speed="88.0" length="274.3193181818182" width="3.6576000000000004" density="5.555555555555555" /><edge id="7_2" from="1_3" to="1_2" sampledSecond="1100" numLanes="1" speed="88.0" length="274.3193181818182" width="3.6576000000000004" density="5.555555555555555" /><edge id="2_1" from="1_3" to="2_1" sampledSecond="1100" numLanes="1" speed="88.0" length="304.7992424242424" width="3.6576000000000004" density="5.555555555555555" /><edge id="8_1" from="2_1" to="1_3" sampledSecond="0" numLanes="1" speed="88.0" length="304.7992424242424" width="3.6576000000000004" density="0.0" /><edge id="2_2" from="2_1" to="2_2" sampledSecond="1100" numLanes="1" speed="88.0" length="1304.5407575757574" width="3.6576000000000004" density="5.555555555555555" /><edge id="8_2" from="2_2" to="2_1" sampledSecond="0" numLanes="1" speed="88.0" length="1304.5407575757574" width="3.6576000000000004" density="0.0" /><edge id="3" from="2_2" to="3_1" sampledSecond="1100" numLanes="1" speed="88.0" length="804.67" width="3.6576000000000004" density="5.555555555555555" /><edge id="9" from="3_1" to="2_2" sampledSecond="0" numLanes="1" speed="88.0" length="804.67" width="3.6576000000000004" density="0.0" /><edge id="4_1" from="3_1" to="4_1" sampledSecond="1100" numLanes="1" speed="88.0" length="1177.7442727272726" width="3.6576000000000004" density="5.555555555555555" /><edge id="10_1" from="4_1" to="3_1" sampledSecond="0" numLanes="1" speed="88.0" length="1177.7442727272726" width="3.6576000000000004" density="0.0" /><edge id="4_2" from="4_1" to="4_2" sampledSecond="1100" numLanes="1" speed="88.0" length="914.3977272727273" width="3.6576000000000004" density="5.555555555555555" /><edge id="10_2" from="4_2" to="4_1" sampledSecond="0" numLanes="1" speed="88.0" length="914.3977272727273" width="3.6576000000000004" density="0.0" /><edge id="5" from="4_2" to="5_1" sampledSecond="1100" numLanes="2" speed="88.0" length="804.67" width="3.6576000000000004" density="5.555555555555555" /><edge id="11" from="5_1" to="4_2" sampledSecond="0" numLanes="1" speed="88.0" length="804.67" width="3.6576000000000004" density="0.0" /><edge id="6" from="5_1" to="6_1" sampledSecond="1100" numLanes="1" speed="88.0" length="804.67" width="3.6576000000000004" density="5.555555555555555" /><edge id="12" from="6_1" to="5_1" sampledSecond="0" numLanes="1" speed="88.0" length="804.67" width="3.6576000000000004" density="0.0" /></edges>