<edges><edge id="1" from="1_1" to="1_2" sampledSecond="752" numLanes="1" speed="80.0" length="1207.0049999999999" width="3.6576000000000004" density="4.177777777777778" /><edge id="2" from="1_2" to="1_1" sampledSecond="0" numLanes="1" speed="80.0" length="1207.0049999999999" width="3.6576000000000004" density="0.0" /></edges>