<?xml version="1.0" encoding="UTF-8"?>

<!-- generated on 2024-05-02 01:35:08.277363 by randomTrip UNKNOWN
<configuration>
    <net-file value="../sim-coordination/sumo/hcm15.net.xml"/>
    <additional-files value="../sim-coordination/sumo/hcm15.add.vtype.xml"/>
    <output-trip-file value="../sim-coordination/sumo/hcm15.trips.xml"/>
    <route-file value="../sim-coordination/sumo/hcm15.rou.xml"/>
    <trip-attributes value="departSpeed=&quot;max&quot; type=&quot;typedist1&quot;"/>
    <speed-exponent value="1.0"/>
    <fringe-factor value="max"/>
    <allow-fringe value="True"/>
    <period value="0.95"/>
    <flows value="1000"/>
    <op-flows value="1500"/>
    <random-depart value="True"/>
</configuration>
-->

<!-- generated on 2024-05-02 01:35:08 by Eclipse SUMO duarouter Version 1.12.0
<configuration xmlns:xsi="http://www.w3.org/2001/XMLSchema-instance" xsi:noNamespaceSchemaLocation="http://sumo.dlr.de/xsd/duarouterConfiguration.xsd">

    <input>
        <net-file value="../sim-coordination/sumo/hcm15.net.xml"/>
        <additional-files value="../sim-coordination/sumo/hcm15.add.vtype.xml"/>
        <route-files value="../sim-coordination/sumo/hcm15.trips.xml"/>
    </input>

    <output>
        <output-file value="../sim-coordination/sumo/hcm15.rou.xml"/>
        <alternatives-output value="NUL"/>
    </output>

    <time>
        <begin value="0"/>
        <end value="3600"/>
    </time>

    <report>
        <no-warnings value="true"/>
        <ignore-errors value="true"/>
        <no-step-log value="true"/>
    </report>

</configuration>
-->

<routes xmlns:xsi="http://www.w3.org/2001/XMLSchema-instance" xsi:noNamespaceSchemaLocation="http://sumo.dlr.de/xsd/routes_file.xsd">
    <vType id="vTypeTruck" length="14.63" maxSpeed="48.00" probability="1.00" guiShape="truck/semitrailer"/>
    <vehicle id="0.0" type="vTypeTruck" depart="0.00" departSpeed="max">
        <route edges="1"/>
    </vehicle>
    <vehicle id="1.0" type="vTypeTruck" depart="0.00" departSpeed="max">
        <route edges="1"/>
    </vehicle>
    <vehicle id="10.0" type="vTypeTruck" depart="0.00" departSpeed="max">
        <route edges="1"/>
    </vehicle>
    <vehicle id="100.0" type="vTypeTruck" depart="0.00" departSpeed="max">
        <route edges="1"/>
    </vehicle>
    <vehicle id="101.0" type="vTypeTruck" depart="0.00" departSpeed="max">
        <route edges="1"/>
    </vehicle>
    <vehicle id="102.0" type="vTypeTruck" depart="0.00" departSpeed="max">
        <route edges="1"/>
    </vehicle>
    <vehicle id="103.0" type="vTypeTruck" depart="0.00" departSpeed="max">
        <route edges="1"/>
    </vehicle>
    <vehicle id="104.0" type="vTypeTruck" depart="0.00" departSpeed="max">
        <route edges="1"/>
    </vehicle>
    <vehicle id="105.0" type="vTypeTruck" depart="0.00" departSpeed="max">
        <route edges="1"/>
    </vehicle>
    <vehicle id="106.0" type="vTypeTruck" depart="0.00" departSpeed="max">
        <route edges="1"/>
    </vehicle>
    <vehicle id="107.0" type="vTypeTruck" depart="0.00" departSpeed="max">
        <route edges="1"/>
    </vehicle>
    <vehicle id="108.0" type="vTypeTruck" depart="0.00" departSpeed="max">
        <route edges="1"/>
    </vehicle>
    <vehicle id="109.0" type="vTypeTruck" depart="0.00" departSpeed="max">
        <route edges="1"/>
    </vehicle>
    <vehicle id="11.0" type="vTypeTruck" depart="0.00" departSpeed="max">
        <route edges="1"/>
    </vehicle>
    <vehicle id="110.0" type="vTypeTruck" depart="0.00" departSpeed="max">
        <route edges="1"/>
    </vehicle>
    <vehicle id="111.0" type="vTypeTruck" depart="0.00" departSpeed="max">
        <route edges="1"/>
    </vehicle>
    <vehicle id="112.0" type="vTypeTruck" depart="0.00" departSpeed="max">
        <route edges="1"/>
    </vehicle>
    <vehicle id="113.0" type="vTypeTruck" depart="0.00" departSpeed="max">
        <route edges="1"/>
    </vehicle>
    <vehicle id="114.0" type="vTypeTruck" depart="0.00" departSpeed="max">
        <route edges="1"/>
    </vehicle>
    <vehicle id="115.0" type="vTypeTruck" depart="0.00" departSpeed="max">
        <route edges="1"/>
    </vehicle>
    <vehicle id="116.0" type="vTypeTruck" depart="0.00" departSpeed="max">
        <route edges="1"/>
    </vehicle>
    <vehicle id="117.0" type="vTypeTruck" depart="0.00" departSpeed="max">
        <route edges="1"/>
    </vehicle>
    <vehicle id="118.0" type="vTypeTruck" depart="0.00" departSpeed="max">
        <route edges="1"/>
    </vehicle>
    <vehicle id="119.0" type="vTypeTruck" depart="0.00" departSpeed="max">
        <route edges="1"/>
    </vehicle>
    <vehicle id="12.0" type="vTypeTruck" depart="0.00" departSpeed="max">
        <route edges="1"/>
    </vehicle>
    <vehicle id="120.0" type="vTypeTruck" depart="0.00" departSpeed="max">
        <route edges="1"/>
    </vehicle>
    <vehicle id="121.0" type="vTypeTruck" depart="0.00" departSpeed="max">
        <route edges="1"/>
    </vehicle>
    <vehicle id="122.0" type="vTypeTruck" depart="0.00" departSpeed="max">
        <route edges="1"/>
    </vehicle>
    <vehicle id="123.0" type="vTypeTruck" depart="0.00" departSpeed="max">
        <route edges="1"/>
    </vehicle>
    <vehicle id="124.0" type="vTypeTruck" depart="0.00" departSpeed="max">
        <route edges="1"/>
    </vehicle>
    <vehicle id="125.0" type="vTypeTruck" depart="0.00" departSpeed="max">
        <route edges="1"/>
    </vehicle>
    <vehicle id="126.0" type="vTypeTruck" depart="0.00" departSpeed="max">
        <route edges="1"/>
    </vehicle>
    <vehicle id="127.0" type="vTypeTruck" depart="0.00" departSpeed="max">
        <route edges="1"/>
    </vehicle>
    <vehicle id="128.0" type="vTypeTruck" depart="0.00" departSpeed="max">
        <route edges="1"/>
    </vehicle>
    <vehicle id="129.0" type="vTypeTruck" depart="0.00" departSpeed="max">
        <route edges="1"/>
    </vehicle>
    <vehicle id="13.0" type="vTypeTruck" depart="0.00" departSpeed="max">
        <route edges="1"/>
    </vehicle>
    <vehicle id="130.0" type="vTypeTruck" depart="0.00" departSpeed="max">
        <route edges="1"/>
    </vehicle>
    <vehicle id="131.0" type="vTypeTruck" depart="0.00" departSpeed="max">
        <route edges="1"/>
    </vehicle>
    <vehicle id="132.0" type="vTypeTruck" depart="0.00" departSpeed="max">
        <route edges="1"/>
    </vehicle>
    <vehicle id="133.0" type="vTypeTruck" depart="0.00" departSpeed="max">
        <route edges="1"/>
    </vehicle>
    <vehicle id="134.0" type="vTypeTruck" depart="0.00" departSpeed="max">
        <route edges="1"/>
    </vehicle>
    <vehicle id="135.0" type="vTypeTruck" depart="0.00" departSpeed="max">
        <route edges="1"/>
    </vehicle>
    <vehicle id="136.0" type="vTypeTruck" depart="0.00" departSpeed="max">
        <route edges="1"/>
    </vehicle>
    <vehicle id="137.0" type="vTypeTruck" depart="0.00" departSpeed="max">
        <route edges="1"/>
    </vehicle>
    <vehicle id="138.0" type="vTypeTruck" depart="0.00" departSpeed="max">
        <route edges="1"/>
    </vehicle>
    <vehicle id="139.0" type="vTypeTruck" depart="0.00" departSpeed="max">
        <route edges="1"/>
    </vehicle>
    <vehicle id="14.0" type="vTypeTruck" depart="0.00" departSpeed="max">
        <route edges="1"/>
    </vehicle>
    <vehicle id="140.0" type="vTypeTruck" depart="0.00" departSpeed="max">
        <route edges="1"/>
    </vehicle>
    <vehicle id="141.0" type="vTypeTruck" depart="0.00" departSpeed="max">
        <route edges="1"/>
    </vehicle>
    <vehicle id="142.0" type="vTypeTruck" depart="0.00" departSpeed="max">
        <route edges="1"/>
    </vehicle>
    <vehicle id="143.0" type="vTypeTruck" depart="0.00" departSpeed="max">
        <route edges="1"/>
    </vehicle>
    <vehicle id="144.0" type="vTypeTruck" depart="0.00" departSpeed="max">
        <route edges="1"/>
    </vehicle>
    <vehicle id="145.0" type="vTypeTruck" depart="0.00" departSpeed="max">
        <route edges="1"/>
    </vehicle>
    <vehicle id="146.0" type="vTypeTruck" depart="0.00" departSpeed="max">
        <route edges="1"/>
    </vehicle>
    <vehicle id="147.0" type="vTypeTruck" depart="0.00" departSpeed="max">
        <route edges="1"/>
    </vehicle>
    <vehicle id="148.0" type="vTypeTruck" depart="0.00" departSpeed="max">
        <route edges="1"/>
    </vehicle>
    <vehicle id="149.0" type="vTypeTruck" depart="0.00" departSpeed="max">
        <route edges="1"/>
    </vehicle>
    <vehicle id="15.0" type="vTypeTruck" depart="0.00" departSpeed="max">
        <route edges="1"/>
    </vehicle>
    <vehicle id="150.0" type="vTypeTruck" depart="0.00" departSpeed="max">
        <route edges="1"/>
    </vehicle>
    <vehicle id="151.0" type="vTypeTruck" depart="0.00" departSpeed="max">
        <route edges="1"/>
    </vehicle>
    <vehicle id="152.0" type="vTypeTruck" depart="0.00" departSpeed="max">
        <route edges="1"/>
    </vehicle>
    <vehicle id="153.0" type="vTypeTruck" depart="0.00" departSpeed="max">
        <route edges="1"/>
    </vehicle>
    <vehicle id="154.0" type="vTypeTruck" depart="0.00" departSpeed="max">
        <route edges="1"/>
    </vehicle>
    <vehicle id="155.0" type="vTypeTruck" depart="0.00" departSpeed="max">
        <route edges="1"/>
    </vehicle>
    <vehicle id="156.0" type="vTypeTruck" depart="0.00" departSpeed="max">
        <route edges="1"/>
    </vehicle>
    <vehicle id="157.0" type="vTypeTruck" depart="0.00" departSpeed="max">
        <route edges="1"/>
    </vehicle>
    <vehicle id="158.0" type="vTypeTruck" depart="0.00" departSpeed="max">
        <route edges="1"/>
    </vehicle>
    <vehicle id="159.0" type="vTypeTruck" depart="0.00" departSpeed="max">
        <route edges="1"/>
    </vehicle>
    <vehicle id="16.0" type="vTypeTruck" depart="0.00" departSpeed="max">
        <route edges="1"/>
    </vehicle>
    <vehicle id="160.0" type="vTypeTruck" depart="0.00" departSpeed="max">
        <route edges="1"/>
    </vehicle>
    <vehicle id="161.0" type="vTypeTruck" depart="0.00" departSpeed="max">
        <route edges="1"/>
    </vehicle>
    <vehicle id="162.0" type="vTypeTruck" depart="0.00" departSpeed="max">
        <route edges="1"/>
    </vehicle>
    <vehicle id="163.0" type="vTypeTruck" depart="0.00" departSpeed="max">
        <route edges="1"/>
    </vehicle>
    <vehicle id="164.0" type="vTypeTruck" depart="0.00" departSpeed="max">
        <route edges="1"/>
    </vehicle>
    <vehicle id="165.0" type="vTypeTruck" depart="0.00" departSpeed="max">
        <route edges="1"/>
    </vehicle>
    <vehicle id="166.0" type="vTypeTruck" depart="0.00" departSpeed="max">
        <route edges="1"/>
    </vehicle>
    <vehicle id="167.0" type="vTypeTruck" depart="0.00" departSpeed="max">
        <route edges="1"/>
    </vehicle>
    <vehicle id="168.0" type="vTypeTruck" depart="0.00" departSpeed="max">
        <route edges="1"/>
    </vehicle>
    <vehicle id="169.0" type="vTypeTruck" depart="0.00" departSpeed="max">
        <route edges="1"/>
    </vehicle>
    <vehicle id="17.0" type="vTypeTruck" depart="0.00" departSpeed="max">
        <route edges="1"/>
    </vehicle>
    <vehicle id="170.0" type="vTypeTruck" depart="0.00" departSpeed="max">
        <route edges="1"/>
    </vehicle>
    <vehicle id="171.0" type="vTypeTruck" depart="0.00" departSpeed="max">
        <route edges="1"/>
    </vehicle>
    <vehicle id="172.0" type="vTypeTruck" depart="0.00" departSpeed="max">
        <route edges="1"/>
    </vehicle>
    <vehicle id="173.0" type="vTypeTruck" depart="0.00" departSpeed="max">
        <route edges="1"/>
    </vehicle>
    <vehicle id="174.0" type="vTypeTruck" depart="0.00" departSpeed="max">
        <route edges="1"/>
    </vehicle>
    <vehicle id="175.0" type="vTypeTruck" depart="0.00" departSpeed="max">
        <route edges="1"/>
    </vehicle>
    <vehicle id="176.0" type="vTypeTruck" depart="0.00" departSpeed="max">
        <route edges="1"/>
    </vehicle>
    <vehicle id="177.0" type="vTypeTruck" depart="0.00" departSpeed="max">
        <route edges="1"/>
    </vehicle>
    <vehicle id="178.0" type="vTypeTruck" depart="0.00" departSpeed="max">
        <route edges="1"/>
    </vehicle>
    <vehicle id="179.0" type="vTypeTruck" depart="0.00" departSpeed="max">
        <route edges="1"/>
    </vehicle>
    <vehicle id="18.0" type="vTypeTruck" depart="0.00" departSpeed="max">
        <route edges="1"/>
    </vehicle>
    <vehicle id="180.0" type="vTypeTruck" depart="0.00" departSpeed="max">
        <route edges="1"/>
    </vehicle>
    <vehicle id="181.0" type="vTypeTruck" depart="0.00" departSpeed="max">
        <route edges="1"/>
    </vehicle>
    <vehicle id="182.0" type="vTypeTruck" depart="0.00" departSpeed="max">
        <route edges="1"/>
    </vehicle>
    <vehicle id="183.0" type="vTypeTruck" depart="0.00" departSpeed="max">
        <route edges="1"/>
    </vehicle>
    <vehicle id="184.0" type="vTypeTruck" depart="0.00" departSpeed="max">
        <route edges="1"/>
    </vehicle>
    <vehicle id="185.0" type="vTypeTruck" depart="0.00" departSpeed="max">
        <route edges="1"/>
    </vehicle>
    <vehicle id="186.0" type="vTypeTruck" depart="0.00" departSpeed="max">
        <route edges="1"/>
    </vehicle>
    <vehicle id="187.0" type="vTypeTruck" depart="0.00" departSpeed="max">
        <route edges="1"/>
    </vehicle>
    <vehicle id="188.0" type="vTypeTruck" depart="0.00" departSpeed="max">
        <route edges="1"/>
    </vehicle>
    <vehicle id="189.0" type="vTypeTruck" depart="0.00" departSpeed="max">
        <route edges="1"/>
    </vehicle>
    <vehicle id="19.0" type="vTypeTruck" depart="0.00" departSpeed="max">
        <route edges="1"/>
    </vehicle>
    <vehicle id="190.0" type="vTypeTruck" depart="0.00" departSpeed="max">
        <route edges="1"/>
    </vehicle>
    <vehicle id="191.0" type="vTypeTruck" depart="0.00" departSpeed="max">
        <route edges="1"/>
    </vehicle>
    <vehicle id="192.0" type="vTypeTruck" depart="0.00" departSpeed="max">
        <route edges="1"/>
    </vehicle>
    <vehicle id="193.0" type="vTypeTruck" depart="0.00" departSpeed="max">
        <route edges="1"/>
    </vehicle>
    <vehicle id="194.0" type="vTypeTruck" depart="0.00" departSpeed="max">
        <route edges="1"/>
    </vehicle>
    <vehicle id="195.0" type="vTypeTruck" depart="0.00" departSpeed="max">
        <route edges="1"/>
    </vehicle>
    <vehicle id="196.0" type="vTypeTruck" depart="0.00" departSpeed="max">
        <route edges="1"/>
    </vehicle>
    <vehicle id="197.0" type="vTypeTruck" depart="0.00" departSpeed="max">
        <route edges="1"/>
    </vehicle>
    <vehicle id="198.0" type="vTypeTruck" depart="0.00" departSpeed="max">
        <route edges="1"/>
    </vehicle>
    <vehicle id="199.0" type="vTypeTruck" depart="0.00" departSpeed="max">
        <route edges="1"/>
    </vehicle>
    <vehicle id="2.0" type="vTypeTruck" depart="0.00" departSpeed="max">
        <route edges="1"/>
    </vehicle>
    <vehicle id="20.0" type="vTypeTruck" depart="0.00" departSpeed="max">
        <route edges="1"/>
    </vehicle>
    <vehicle id="200.0" type="vTypeTruck" depart="0.00" departSpeed="max">
        <route edges="1"/>
    </vehicle>
    <vehicle id="201.0" type="vTypeTruck" depart="0.00" departSpeed="max">
        <route edges="1"/>
    </vehicle>
    <vehicle id="202.0" type="vTypeTruck" depart="0.00" departSpeed="max">
        <route edges="1"/>
    </vehicle>
    <vehicle id="203.0" type="vTypeTruck" depart="0.00" departSpeed="max">
        <route edges="1"/>
    </vehicle>
    <vehicle id="204.0" type="vTypeTruck" depart="0.00" departSpeed="max">
        <route edges="1"/>
    </vehicle>
    <vehicle id="205.0" type="vTypeTruck" depart="0.00" departSpeed="max">
        <route edges="1"/>
    </vehicle>
    <vehicle id="206.0" type="vTypeTruck" depart="0.00" departSpeed="max">
        <route edges="1"/>
    </vehicle>
    <vehicle id="207.0" type="vTypeTruck" depart="0.00" departSpeed="max">
        <route edges="1"/>
    </vehicle>
    <vehicle id="208.0" type="vTypeTruck" depart="0.00" departSpeed="max">
        <route edges="1"/>
    </vehicle>
    <vehicle id="209.0" type="vTypeTruck" depart="0.00" departSpeed="max">
        <route edges="1"/>
    </vehicle>
    <vehicle id="21.0" type="vTypeTruck" depart="0.00" departSpeed="max">
        <route edges="1"/>
    </vehicle>
    <vehicle id="210.0" type="vTypeTruck" depart="0.00" departSpeed="max">
        <route edges="1"/>
    </vehicle>
    <vehicle id="211.0" type="vTypeTruck" depart="0.00" departSpeed="max">
        <route edges="1"/>
    </vehicle>
    <vehicle id="212.0" type="vTypeTruck" depart="0.00" departSpeed="max">
        <route edges="1"/>
    </vehicle>
    <vehicle id="213.0" type="vTypeTruck" depart="0.00" departSpeed="max">
        <route edges="1"/>
    </vehicle>
    <vehicle id="214.0" type="vTypeTruck" depart="0.00" departSpeed="max">
        <route edges="1"/>
    </vehicle>
    <vehicle id="215.0" type="vTypeTruck" depart="0.00" departSpeed="max">
        <route edges="1"/>
    </vehicle>
    <vehicle id="216.0" type="vTypeTruck" depart="0.00" departSpeed="max">
        <route edges="1"/>
    </vehicle>
    <vehicle id="217.0" type="vTypeTruck" depart="0.00" departSpeed="max">
        <route edges="1"/>
    </vehicle>
    <vehicle id="218.0" type="vTypeTruck" depart="0.00" departSpeed="max">
        <route edges="1"/>
    </vehicle>
    <vehicle id="219.0" type="vTypeTruck" depart="0.00" departSpeed="max">
        <route edges="1"/>
    </vehicle>
    <vehicle id="22.0" type="vTypeTruck" depart="0.00" departSpeed="max">
        <route edges="1"/>
    </vehicle>
    <vehicle id="220.0" type="vTypeTruck" depart="0.00" departSpeed="max">
        <route edges="1"/>
    </vehicle>
    <vehicle id="221.0" type="vTypeTruck" depart="0.00" departSpeed="max">
        <route edges="1"/>
    </vehicle>
    <vehicle id="222.0" type="vTypeTruck" depart="0.00" departSpeed="max">
        <route edges="1"/>
    </vehicle>
    <vehicle id="223.0" type="vTypeTruck" depart="0.00" departSpeed="max">
        <route edges="1"/>
    </vehicle>
    <vehicle id="224.0" type="vTypeTruck" depart="0.00" departSpeed="max">
        <route edges="1"/>
    </vehicle>
    <vehicle id="225.0" type="vTypeTruck" depart="0.00" departSpeed="max">
        <route edges="1"/>
    </vehicle>
    <vehicle id="226.0" type="vTypeTruck" depart="0.00" departSpeed="max">
        <route edges="1"/>
    </vehicle>
    <vehicle id="227.0" type="vTypeTruck" depart="0.00" departSpeed="max">
        <route edges="1"/>
    </vehicle>
    <vehicle id="228.0" type="vTypeTruck" depart="0.00" departSpeed="max">
        <route edges="1"/>
    </vehicle>
    <vehicle id="229.0" type="vTypeTruck" depart="0.00" departSpeed="max">
        <route edges="1"/>
    </vehicle>
    <vehicle id="23.0" type="vTypeTruck" depart="0.00" departSpeed="max">
        <route edges="1"/>
    </vehicle>
    <vehicle id="230.0" type="vTypeTruck" depart="0.00" departSpeed="max">
        <route edges="1"/>
    </vehicle>
    <vehicle id="231.0" type="vTypeTruck" depart="0.00" departSpeed="max">
        <route edges="1"/>
    </vehicle>
    <vehicle id="232.0" type="vTypeTruck" depart="0.00" departSpeed="max">
        <route edges="1"/>
    </vehicle>
    <vehicle id="233.0" type="vTypeTruck" depart="0.00" departSpeed="max">
        <route edges="1"/>
    </vehicle>
    <vehicle id="234.0" type="vTypeTruck" depart="0.00" departSpeed="max">
        <route edges="1"/>
    </vehicle>
    <vehicle id="235.0" type="vTypeTruck" depart="0.00" departSpeed="max">
        <route edges="1"/>
    </vehicle>
    <vehicle id="236.0" type="vTypeTruck" depart="0.00" departSpeed="max">
        <route edges="1"/>
    </vehicle>
    <vehicle id="237.0" type="vTypeTruck" depart="0.00" departSpeed="max">
        <route edges="1"/>
    </vehicle>
    <vehicle id="238.0" type="vTypeTruck" depart="0.00" departSpeed="max">
        <route edges="1"/>
    </vehicle>
    <vehicle id="239.0" type="vTypeTruck" depart="0.00" departSpeed="max">
        <route edges="1"/>
    </vehicle>
    <vehicle id="24.0" type="vTypeTruck" depart="0.00" departSpeed="max">
        <route edges="1"/>
    </vehicle>
    <vehicle id="240.0" type="vTypeTruck" depart="0.00" departSpeed="max">
        <route edges="1"/>
    </vehicle>
    <vehicle id="241.0" type="vTypeTruck" depart="0.00" departSpeed="max">
        <route edges="1"/>
    </vehicle>
    <vehicle id="242.0" type="vTypeTruck" depart="0.00" departSpeed="max">
        <route edges="1"/>
    </vehicle>
    <vehicle id="243.0" type="vTypeTruck" depart="0.00" departSpeed="max">
        <route edges="1"/>
    </vehicle>
    <vehicle id="244.0" type="vTypeTruck" depart="0.00" departSpeed="max">
        <route edges="1"/>
    </vehicle>
    <vehicle id="245.0" type="vTypeTruck" depart="0.00" departSpeed="max">
        <route edges="1"/>
    </vehicle>
    <vehicle id="246.0" type="vTypeTruck" depart="0.00" departSpeed="max">
        <route edges="1"/>
    </vehicle>
    <vehicle id="247.0" type="vTypeTruck" depart="0.00" departSpeed="max">
        <route edges="1"/>
    </vehicle>
    <vehicle id="248.0" type="vTypeTruck" depart="0.00" departSpeed="max">
        <route edges="1"/>
    </vehicle>
    <vehicle id="249.0" type="vTypeTruck" depart="0.00" departSpeed="max">
        <route edges="1"/>
    </vehicle>
    <vehicle id="25.0" type="vTypeTruck" depart="0.00" departSpeed="max">
        <route edges="1"/>
    </vehicle>
    <vehicle id="250.0" type="vTypeTruck" depart="0.00" departSpeed="max">
        <route edges="1"/>
    </vehicle>
    <vehicle id="251.0" type="vTypeTruck" depart="0.00" departSpeed="max">
        <route edges="1"/>
    </vehicle>
    <vehicle id="252.0" type="vTypeTruck" depart="0.00" departSpeed="max">
        <route edges="1"/>
    </vehicle>
    <vehicle id="253.0" type="vTypeTruck" depart="0.00" departSpeed="max">
        <route edges="1"/>
    </vehicle>
    <vehicle id="254.0" type="vTypeTruck" depart="0.00" departSpeed="max">
        <route edges="1"/>
    </vehicle>
    <vehicle id="255.0" type="vTypeTruck" depart="0.00" departSpeed="max">
        <route edges="1"/>
    </vehicle>
    <vehicle id="256.0" type="vTypeTruck" depart="0.00" departSpeed="max">
        <route edges="1"/>
    </vehicle>
    <vehicle id="257.0" type="vTypeTruck" depart="0.00" departSpeed="max">
        <route edges="1"/>
    </vehicle>
    <vehicle id="258.0" type="vTypeTruck" depart="0.00" departSpeed="max">
        <route edges="1"/>
    </vehicle>
    <vehicle id="259.0" type="vTypeTruck" depart="0.00" departSpeed="max">
        <route edges="1"/>
    </vehicle>
    <vehicle id="26.0" type="vTypeTruck" depart="0.00" departSpeed="max">
        <route edges="1"/>
    </vehicle>
    <vehicle id="260.0" type="vTypeTruck" depart="0.00" departSpeed="max">
        <route edges="1"/>
    </vehicle>
    <vehicle id="261.0" type="vTypeTruck" depart="0.00" departSpeed="max">
        <route edges="1"/>
    </vehicle>
    <vehicle id="262.0" type="vTypeTruck" depart="0.00" departSpeed="max">
        <route edges="1"/>
    </vehicle>
    <vehicle id="263.0" type="vTypeTruck" depart="0.00" departSpeed="max">
        <route edges="1"/>
    </vehicle>
    <vehicle id="264.0" type="vTypeTruck" depart="0.00" departSpeed="max">
        <route edges="1"/>
    </vehicle>
    <vehicle id="265.0" type="vTypeTruck" depart="0.00" departSpeed="max">
        <route edges="1"/>
    </vehicle>
    <vehicle id="266.0" type="vTypeTruck" depart="0.00" departSpeed="max">
        <route edges="1"/>
    </vehicle>
    <vehicle id="267.0" type="vTypeTruck" depart="0.00" departSpeed="max">
        <route edges="1"/>
    </vehicle>
    <vehicle id="268.0" type="vTypeTruck" depart="0.00" departSpeed="max">
        <route edges="1"/>
    </vehicle>
    <vehicle id="269.0" type="vTypeTruck" depart="0.00" departSpeed="max">
        <route edges="1"/>
    </vehicle>
    <vehicle id="27.0" type="vTypeTruck" depart="0.00" departSpeed="max">
        <route edges="1"/>
    </vehicle>
    <vehicle id="270.0" type="vTypeTruck" depart="0.00" departSpeed="max">
        <route edges="1"/>
    </vehicle>
    <vehicle id="271.0" type="vTypeTruck" depart="0.00" departSpeed="max">
        <route edges="1"/>
    </vehicle>
    <vehicle id="272.0" type="vTypeTruck" depart="0.00" departSpeed="max">
        <route edges="1"/>
    </vehicle>
    <vehicle id="273.0" type="vTypeTruck" depart="0.00" departSpeed="max">
        <route edges="1"/>
    </vehicle>
    <vehicle id="274.0" type="vTypeTruck" depart="0.00" departSpeed="max">
        <route edges="1"/>
    </vehicle>
    <vehicle id="275.0" type="vTypeTruck" depart="0.00" departSpeed="max">
        <route edges="1"/>
    </vehicle>
    <vehicle id="276.0" type="vTypeTruck" depart="0.00" departSpeed="max">
        <route edges="1"/>
    </vehicle>
    <vehicle id="277.0" type="vTypeTruck" depart="0.00" departSpeed="max">
        <route edges="1"/>
    </vehicle>
    <vehicle id="278.0" type="vTypeTruck" depart="0.00" departSpeed="max">
        <route edges="1"/>
    </vehicle>
    <vehicle id="279.0" type="vTypeTruck" depart="0.00" departSpeed="max">
        <route edges="1"/>
    </vehicle>
    <vehicle id="28.0" type="vTypeTruck" depart="0.00" departSpeed="max">
        <route edges="1"/>
    </vehicle>
    <vehicle id="280.0" type="vTypeTruck" depart="0.00" departSpeed="max">
        <route edges="1"/>
    </vehicle>
    <vehicle id="281.0" type="vTypeTruck" depart="0.00" departSpeed="max">
        <route edges="1"/>
    </vehicle>
    <vehicle id="282.0" type="vTypeTruck" depart="0.00" departSpeed="max">
        <route edges="1"/>
    </vehicle>
    <vehicle id="283.0" type="vTypeTruck" depart="0.00" departSpeed="max">
        <route edges="1"/>
    </vehicle>
    <vehicle id="284.0" type="vTypeTruck" depart="0.00" departSpeed="max">
        <route edges="1"/>
    </vehicle>
    <vehicle id="285.0" type="vTypeTruck" depart="0.00" departSpeed="max">
        <route edges="1"/>
    </vehicle>
    <vehicle id="286.0" type="vTypeTruck" depart="0.00" departSpeed="max">
        <route edges="1"/>
    </vehicle>
    <vehicle id="287.0" type="vTypeTruck" depart="0.00" departSpeed="max">
        <route edges="1"/>
    </vehicle>
    <vehicle id="288.0" type="vTypeTruck" depart="0.00" departSpeed="max">
        <route edges="1"/>
    </vehicle>
    <vehicle id="289.0" type="vTypeTruck" depart="0.00" departSpeed="max">
        <route edges="1"/>
    </vehicle>
    <vehicle id="29.0" type="vTypeTruck" depart="0.00" departSpeed="max">
        <route edges="1"/>
    </vehicle>
    <vehicle id="290.0" type="vTypeTruck" depart="0.00" departSpeed="max">
        <route edges="1"/>
    </vehicle>
    <vehicle id="291.0" type="vTypeTruck" depart="0.00" departSpeed="max">
        <route edges="1"/>
    </vehicle>
    <vehicle id="292.0" type="vTypeTruck" depart="0.00" departSpeed="max">
        <route edges="1"/>
    </vehicle>
    <vehicle id="293.0" type="vTypeTruck" depart="0.00" departSpeed="max">
        <route edges="1"/>
    </vehicle>
    <vehicle id="294.0" type="vTypeTruck" depart="0.00" departSpeed="max">
        <route edges="1"/>
    </vehicle>
    <vehicle id="295.0" type="vTypeTruck" depart="0.00" departSpeed="max">
        <route edges="1"/>
    </vehicle>
    <vehicle id="296.0" type="vTypeTruck" depart="0.00" departSpeed="max">
        <route edges="1"/>
    </vehicle>
    <vehicle id="297.0" type="vTypeTruck" depart="0.00" departSpeed="max">
        <route edges="1"/>
    </vehicle>
    <vehicle id="298.0" type="vTypeTruck" depart="0.00" departSpeed="max">
        <route edges="1"/>
    </vehicle>
    <vehicle id="299.0" type="vTypeTruck" depart="0.00" departSpeed="max">
        <route edges="1"/>
    </vehicle>
    <vehicle id="3.0" type="vTypeTruck" depart="0.00" departSpeed="max">
        <route edges="1"/>
    </vehicle>
    <vehicle id="30.0" type="vTypeTruck" depart="0.00" departSpeed="max">
        <route edges="1"/>
    </vehicle>
    <vehicle id="300.0" type="vTypeTruck" depart="0.00" departSpeed="max">
        <route edges="1"/>
    </vehicle>
    <vehicle id="301.0" type="vTypeTruck" depart="0.00" departSpeed="max">
        <route edges="1"/>
    </vehicle>
    <vehicle id="302.0" type="vTypeTruck" depart="0.00" departSpeed="max">
        <route edges="1"/>
    </vehicle>
    <vehicle id="303.0" type="vTypeTruck" depart="0.00" departSpeed="max">
        <route edges="1"/>
    </vehicle>
    <vehicle id="304.0" type="vTypeTruck" depart="0.00" departSpeed="max">
        <route edges="1"/>
    </vehicle>
    <vehicle id="305.0" type="vTypeTruck" depart="0.00" departSpeed="max">
        <route edges="1"/>
    </vehicle>
    <vehicle id="306.0" type="vTypeTruck" depart="0.00" departSpeed="max">
        <route edges="1"/>
    </vehicle>
    <vehicle id="307.0" type="vTypeTruck" depart="0.00" departSpeed="max">
        <route edges="1"/>
    </vehicle>
    <vehicle id="308.0" type="vTypeTruck" depart="0.00" departSpeed="max">
        <route edges="1"/>
    </vehicle>
    <vehicle id="309.0" type="vTypeTruck" depart="0.00" departSpeed="max">
        <route edges="1"/>
    </vehicle>
    <vehicle id="31.0" type="vTypeTruck" depart="0.00" departSpeed="max">
        <route edges="1"/>
    </vehicle>
    <vehicle id="310.0" type="vTypeTruck" depart="0.00" departSpeed="max">
        <route edges="1"/>
    </vehicle>
    <vehicle id="311.0" type="vTypeTruck" depart="0.00" departSpeed="max">
        <route edges="1"/>
    </vehicle>
    <vehicle id="312.0" type="vTypeTruck" depart="0.00" departSpeed="max">
        <route edges="1"/>
    </vehicle>
    <vehicle id="313.0" type="vTypeTruck" depart="0.00" departSpeed="max">
        <route edges="1"/>
    </vehicle>
    <vehicle id="314.0" type="vTypeTruck" depart="0.00" departSpeed="max">
        <route edges="1"/>
    </vehicle>